File D:\building2.s2k was saved on 8-21-12 at 14:04:59
 
TABLE:  "PROGRAM CONTROL"
   ProgramName=SAP2000   Version=15.1.0   ProgLevel=Ultimate   LicenseNum=27CB8   LicenseOS=Yes   LicenseSC=Yes   LicenseBR=No   LicenseHT=No   CurrUnits="KN, m, C"   SteelCode=AISC360-05/IBC2006   ConcCode="ACI 318-05/IBC2003" _
        AlumCode="AA-ASD 2000"   ColdCode=AISI-ASD96   BridgeCode="AASHTO LRFD 2007"   RegenHinge=Yes
 
TABLE:  "ACTIVE DEGREES OF FREEDOM"
   UX=Yes   UY=Yes   UZ=Yes   RX=Yes   RY=Yes   RZ=Yes
 
TABLE:  "ANALYSIS OPTIONS"
   Solver=Advanced   SolverProc=Auto   Force32Bit=No   StiffCase=None   GeomMod=No
 
TABLE:  "COORDINATE SYSTEMS"
   Name=GLOBAL   Type=Cartesian   X=0   Y=0   Z=0   AboutZ=0   AboutY=0   AboutX=0
 
TABLE:  "GRID LINES"
   CoordSys=GLOBAL   AxisDir=X   GridID=A   XRYZCoord=-15000   LineType=Primary   LineColor=Gray8Dark   Visible=Yes   BubbleLoc=End   AllVisible=Yes   BubbleSize=1375
   CoordSys=GLOBAL   AxisDir=X   GridID=B   XRYZCoord=-10000   LineType=Primary   LineColor=Gray8Dark   Visible=Yes   BubbleLoc=End
   CoordSys=GLOBAL   AxisDir=X   GridID=C   XRYZCoord=-5000   LineType=Primary   LineColor=Gray8Dark   Visible=Yes   BubbleLoc=End
   CoordSys=GLOBAL   AxisDir=X   GridID=D   XRYZCoord=0   LineType=Primary   LineColor=Gray8Dark   Visible=Yes   BubbleLoc=End
   CoordSys=GLOBAL   AxisDir=X   GridID=E   XRYZCoord=5000   LineType=Primary   LineColor=Gray8Dark   Visible=Yes   BubbleLoc=End
   CoordSys=GLOBAL   AxisDir=X   GridID=F   XRYZCoord=10000   LineType=Primary   LineColor=Gray8Dark   Visible=Yes   BubbleLoc=End
   CoordSys=GLOBAL   AxisDir=X   GridID=G   XRYZCoord=15000   LineType=Primary   LineColor=Gray8Dark   Visible=Yes   BubbleLoc=End
   CoordSys=GLOBAL   AxisDir=Y   GridID=1   XRYZCoord=-8000   LineType=Primary   LineColor=Gray8Dark   Visible=Yes   BubbleLoc=Start
   CoordSys=GLOBAL   AxisDir=Y   GridID=2   XRYZCoord=-4000   LineType=Primary   LineColor=Gray8Dark   Visible=Yes   BubbleLoc=Start
   CoordSys=GLOBAL   AxisDir=Y   GridID=3   XRYZCoord=0   LineType=Primary   LineColor=Gray8Dark   Visible=Yes   BubbleLoc=Start
   CoordSys=GLOBAL   AxisDir=Y   GridID=4   XRYZCoord=4000   LineType=Primary   LineColor=Gray8Dark   Visible=Yes   BubbleLoc=Start
   CoordSys=GLOBAL   AxisDir=Y   GridID=5   XRYZCoord=8000   LineType=Primary   LineColor=Gray8Dark   Visible=Yes   BubbleLoc=Start
   CoordSys=GLOBAL   AxisDir=Z   GridID=Z1   XRYZCoord=0   LineType=Primary   LineColor=Gray8Dark   Visible=Yes   BubbleLoc=End
   CoordSys=GLOBAL   AxisDir=Z   GridID=Z2   XRYZCoord=6000   LineType=Primary   LineColor=Gray8Dark   Visible=Yes   BubbleLoc=End
   CoordSys=GLOBAL   AxisDir=Z   GridID=Z3   XRYZCoord=12000   LineType=Primary   LineColor=Gray8Dark   Visible=Yes   BubbleLoc=End
   CoordSys=GLOBAL   AxisDir=Z   GridID=Z4   XRYZCoord=18000   LineType=Primary   LineColor=Gray8Dark   Visible=Yes   BubbleLoc=End
   CoordSys=GLOBAL   AxisDir=Z   GridID=Z5   XRYZCoord=24000   LineType=Primary   LineColor=Gray8Dark   Visible=Yes   BubbleLoc=End
   CoordSys=GLOBAL   AxisDir=Z   GridID=Z6   XRYZCoord=30000   LineType=Primary   LineColor=Gray8Dark   Visible=Yes   BubbleLoc=End
 
TABLE:  "MATERIAL PROPERTIES 01 - GENERAL"
   Material=4000Psi   Type=Concrete   SymType=Isotropic   TempDepend=No   Color=Red   Notes="Customary f'c 4000 psi 2012-8-21 14:02:17"
   Material=A992Fy50   Type=Steel   SymType=Isotropic   TempDepend=No   Color=Cyan   Notes="ASTM A992 Grade 50 2012-8-21 14:02:17"
 
TABLE:  "MATERIAL PROPERTIES 02 - BASIC MECHANICAL PROPERTIES"
   Material=4000Psi   UnitWeight=23.5631216161854   UnitMass=2.40276960558926   E1=24855578.0600518   G12=10356490.8583549   U12=.2   A1=.0000099
   Material=A992Fy50   UnitWeight=76.9728639422648   UnitMass=7.84904737995992   E1=199947978.795958   G12=76903068.767676   U12=.3   A1=.0000117
 
TABLE:  "MATERIAL PROPERTIES 03A - STEEL DATA"
   Material=A992Fy50   Fy=344737.894475789   Fu=448159.262818526   EffFy=379211.683923368   EffFu=492975.189100378   SSCurveOpt=Simple   SSHysType=Kinematic   SHard=.015   SMax=.11   SRup=.17   FinalSlope=-.1
 
TABLE:  "MATERIAL PROPERTIES 03B - CONCRETE DATA"
   Material=4000Psi   Fc=27579.0315580631   LtWtConc=No   SSCurveOpt=Mander   SSHysType=Takeda   SFc=.00221914   SCap=.005   FinalSlope=-.1   FAngle=0   DAngle=0
 
TABLE:  "MATERIAL PROPERTIES 06 - DAMPING PARAMETERS"
   Material=4000Psi   ModalRatio=0   VisMass=0   VisStiff=0   HysMass=0   HysStiff=0
   Material=A992Fy50   ModalRatio=0   VisMass=0   VisStiff=0   HysMass=0   HysStiff=0
 
TABLE:  "FRAME SECTION PROPERTIES 01 - GENERAL"
   SectionName=FSEC1   Material=A992Fy50   Shape=Box/Tube   t3=50   t2=50   tf=8   tw=8   Area=1344   TorsConst=592704   I33=409472   I22=409472   AS2=800   AS3=800   S33=16378.88   S22=16378.88   Z33=21424   Z22=21424 _
        R33=17.4547032821147   R22=17.4547032821147   ConcCol=No   ConcBeam=No   Color=White   TotalWt=242593835829.558   TotalMass=24737685646.4721   FromFile=No   AMod=1   A2Mod=1   A3Mod=1   JMod=1   I2Mod=1   I3Mod=1   MMod=1   WMod=1   Notes="Added 2012-8-21 14:03:09"
 
TABLE:  "REBAR SIZES"
   RebarID=#2   Area=.000032258   Diameter=.00635
   RebarID=#3   Area=7.09675996154547E-05   Diameter=.009525
   RebarID=#4   Area=1.29032001922727E-04   Diameter=.0127
   RebarID=#5   Area=1.99999601538181E-04   Diameter=.015875
   RebarID=#6   Area=2.83870398461819E-04   Diameter=.01905
   RebarID=#7   Area=3.87096015381813E-04   Diameter=.022225
   RebarID=#8   Area=5.09676413843632E-04   Diameter=.0254
   RebarID=#9   Area=.00064516   Diameter=2.86512005329132E-02
   RebarID=#10   Area=8.1935318769455E-04   Diameter=3.22579995155334E-02
   RebarID=#11   Area=1.00644956308365E-03   Diameter=3.58139991521835E-02
   RebarID=#14   Area=.00145161   Diameter=4.30021989583969E-02
   RebarID=#18   Area=.00258064   Diameter=5.73277992248535E-02
   RebarID=10M   Area=1.00000004162606E-04   Diameter=1.13000003604438E-02
   RebarID=15M   Area=2.00000008325212E-04   Diameter=1.60000002402959E-02
   RebarID=20M   Area=3.00000012487818E-04   Diameter=1.95000002928606E-02
   RebarID=25M   Area=5.00000020813031E-04   Diameter=2.52000011414055E-02
   RebarID=30M   Area=7.00000029138243E-04   Diameter=2.99000000675832E-02
   RebarID=35M   Area=1.00000004162606E-03   Diameter=3.57000012990997E-02
   RebarID=45M   Area=1.50000006243909E-03   Diameter=4.37000014192476E-02
   RebarID=55M   Area=2.50000010406515E-03   Diameter=.056400002372922
   RebarID=6d   Area=2.83000004150781E-05   Diameter=6.00000009011096E-03
   RebarID=8d   Area=5.03000013308514E-05   Diameter=8.00000012014795E-03
   RebarID=10d   Area=7.85000032676458E-05   Diameter=1.00000001501849E-02
   RebarID=12d   Area=1.13000004703745E-04   Diameter=1.20000001802219E-02
   RebarID=14d   Area=1.54000006410413E-04   Diameter=1.40000002102589E-02
   RebarID=16d   Area=2.01000008366838E-04   Diameter=1.60000002402959E-02
   RebarID=20d   Area=3.14000013070583E-04   Diameter=2.00000003003699E-02
   RebarID=25d   Area=4.91000020438396E-04   Diameter=2.50000003754623E-02
   RebarID=26d   Area=5.31000022103439E-04   Diameter=2.60000003904808E-02
   RebarID=28d   Area=6.16000025641654E-04   Diameter=2.80000004205178E-02
   RebarID=N12   Area=1.13000004703745E-04   Diameter=1.20000001802219E-02
   RebarID=N16   Area=2.01000008366838E-04   Diameter=1.60000002402959E-02
   RebarID=N20   Area=3.14000013070583E-04   Diameter=2.00000003003699E-02
   RebarID=N24   Area=4.5200001881498E-04   Diameter=2.40000003604438E-02
   RebarID=N28   Area=6.16000025641654E-04   Diameter=2.80000004205178E-02
   RebarID=N32   Area=8.04000033467353E-04   Diameter=3.20000004805918E-02
   RebarID=N36   Area=1.02000004245858E-03   Diameter=3.60000005406658E-02
 
TABLE:  "LOAD PATTERN DEFINITIONS"
   LoadPat=DEAD   DesignType=DEAD   SelfWtMult=1
 
TABLE:  "AUTO WAVE 3 - WAVE CHARACTERISTICS - GENERAL"
   WaveChar=Default   WaveType="From Theory"   KinFactor=1   SWaterDepth=45   WaveHeight=18   WavePeriod=12   WaveTheory=Linear
 
TABLE:  "FUNCTION - RESPONSE SPECTRUM - USER"
   Name=UNIFRS   Period=0   Accel=1   FuncDamp=.05
   Name=UNIFRS   Period=1   Accel=1
 
TABLE:  "FUNCTION - TIME HISTORY - USER"
   Name=RAMPTH   Time=0   Value=0
   Name=RAMPTH   Time=1   Value=1
   Name=RAMPTH   Time=4   Value=1
   Name=UNIFTH   Time=0   Value=1
   Name=UNIFTH   Time=1   Value=1
 
TABLE:  "FUNCTION - POWER SPECTRAL DENSITY - USER"
   Name=UNIFPSD   Frequency=0   Value=1
   Name=UNIFPSD   Frequency=1   Value=1
 
TABLE:  "FUNCTION - STEADY STATE - USER"
   Name=UNIFSS   Frequency=0   Value=1
   Name=UNIFSS   Frequency=1   Value=1
 
TABLE:  "GROUPS 1 - DEFINITIONS"
   GroupName=ALL   Selection=Yes   SectionCut=Yes   Steel=Yes   Concrete=Yes   Aluminum=Yes   ColdFormed=Yes   Stage=Yes   Bridge=Yes   AutoSeismic=No   AutoWind=No   SelDesSteel=No   SelDesAlum=No   SelDesCold=No   MassWeight=Yes   Color=Red
 
TABLE:  "JOINT PATTERN DEFINITIONS"
   Pattern=Default
 
TABLE:  "MASSES 1 - MASS SOURCE"
   MassFrom=Elements
 
TABLE:  "FUNCTION - PLOT FUNCTIONS"
   PlotFunc="Input Energy"   Type=Energy   Component=Input   Mode=All
 
TABLE:  "LOAD CASE DEFINITIONS"
   Case=DEAD   Type=LinStatic   InitialCond=Zero   DesTypeOpt="Prog Det"   DesignType=DEAD   DesActOpt="Prog Det"   DesignAct=Non-Composite   AutoType=None   RunCase=Yes   CaseStatus="Not Run"
   Case=MODAL   Type=LinModal   InitialCond=Zero   DesTypeOpt="Prog Det"   DesignType=OTHER   DesActOpt="Prog Det"   DesignAct=Other   AutoType=None   RunCase=Yes   CaseStatus="Not Run"
 
TABLE:  "CASE - STATIC 1 - LOAD ASSIGNMENTS"
   Case=DEAD   LoadType="Load pattern"   LoadName=DEAD   LoadSF=1
 
TABLE:  "CASE - MODAL 1 - GENERAL"
   Case=MODAL   ModeType=Eigen   MaxNumModes=12   MinNumModes=1   EigenShift=0   EigenCutoff=0   EigenTol=.000000001   AutoShift=Yes
 
TABLE:  "BRIDGE DESIGN PREFERENCES - AASHTOLRFD07"
   HingeOpt="Auto: AASHTO/Caltrans Hinge"
 
TABLE:  "JOINT COORDINATES"
   Joint=1   CoordSys=GLOBAL   CoordType=Cartesian   XorR=-15000   Y=-8000   Z=0   SpecialJt=No   GlobalX=-15000   GlobalY=-8000   GlobalZ=0
   Joint=2   CoordSys=GLOBAL   CoordType=Cartesian   XorR=-15000   Y=-8000   Z=6000   SpecialJt=No   GlobalX=-15000   GlobalY=-8000   GlobalZ=6000
   Joint=3   CoordSys=GLOBAL   CoordType=Cartesian   XorR=-15000   Y=-8000   Z=12000   SpecialJt=No   GlobalX=-15000   GlobalY=-8000   GlobalZ=12000
   Joint=4   CoordSys=GLOBAL   CoordType=Cartesian   XorR=-15000   Y=-8000   Z=18000   SpecialJt=No   GlobalX=-15000   GlobalY=-8000   GlobalZ=18000
   Joint=5   CoordSys=GLOBAL   CoordType=Cartesian   XorR=-15000   Y=-8000   Z=24000   SpecialJt=No   GlobalX=-15000   GlobalY=-8000   GlobalZ=24000
   Joint=6   CoordSys=GLOBAL   CoordType=Cartesian   XorR=-15000   Y=-8000   Z=30000   SpecialJt=No   GlobalX=-15000   GlobalY=-8000   GlobalZ=30000
   Joint=7   CoordSys=GLOBAL   CoordType=Cartesian   XorR=-15000   Y=-4000   Z=0   SpecialJt=No   GlobalX=-15000   GlobalY=-4000   GlobalZ=0
   Joint=8   CoordSys=GLOBAL   CoordType=Cartesian   XorR=-15000   Y=-4000   Z=6000   SpecialJt=No   GlobalX=-15000   GlobalY=-4000   GlobalZ=6000
   Joint=9   CoordSys=GLOBAL   CoordType=Cartesian   XorR=-15000   Y=-4000   Z=12000   SpecialJt=No   GlobalX=-15000   GlobalY=-4000   GlobalZ=12000
   Joint=10   CoordSys=GLOBAL   CoordType=Cartesian   XorR=-15000   Y=-4000   Z=18000   SpecialJt=No   GlobalX=-15000   GlobalY=-4000   GlobalZ=18000
   Joint=11   CoordSys=GLOBAL   CoordType=Cartesian   XorR=-15000   Y=-4000   Z=24000   SpecialJt=No   GlobalX=-15000   GlobalY=-4000   GlobalZ=24000
   Joint=12   CoordSys=GLOBAL   CoordType=Cartesian   XorR=-15000   Y=-4000   Z=30000   SpecialJt=No   GlobalX=-15000   GlobalY=-4000   GlobalZ=30000
   Joint=13   CoordSys=GLOBAL   CoordType=Cartesian   XorR=-15000   Y=0   Z=0   SpecialJt=No   GlobalX=-15000   GlobalY=0   GlobalZ=0
   Joint=14   CoordSys=GLOBAL   CoordType=Cartesian   XorR=-15000   Y=0   Z=6000   SpecialJt=No   GlobalX=-15000   GlobalY=0   GlobalZ=6000
   Joint=15   CoordSys=GLOBAL   CoordType=Cartesian   XorR=-15000   Y=0   Z=12000   SpecialJt=No   GlobalX=-15000   GlobalY=0   GlobalZ=12000
   Joint=16   CoordSys=GLOBAL   CoordType=Cartesian   XorR=-15000   Y=0   Z=18000   SpecialJt=No   GlobalX=-15000   GlobalY=0   GlobalZ=18000
   Joint=17   CoordSys=GLOBAL   CoordType=Cartesian   XorR=-15000   Y=0   Z=24000   SpecialJt=No   GlobalX=-15000   GlobalY=0   GlobalZ=24000
   Joint=18   CoordSys=GLOBAL   CoordType=Cartesian   XorR=-15000   Y=0   Z=30000   SpecialJt=No   GlobalX=-15000   GlobalY=0   GlobalZ=30000
   Joint=19   CoordSys=GLOBAL   CoordType=Cartesian   XorR=-15000   Y=4000   Z=0   SpecialJt=No   GlobalX=-15000   GlobalY=4000   GlobalZ=0
   Joint=20   CoordSys=GLOBAL   CoordType=Cartesian   XorR=-15000   Y=4000   Z=6000   SpecialJt=No   GlobalX=-15000   GlobalY=4000   GlobalZ=6000
# ... 189 like lines cut
 
TABLE:  "CONNECTIVITY - FRAME"
   Frame=1   JointI=1   JointJ=2   IsCurved=No   Length=6000   CentroidX=-15000   CentroidY=-8000   CentroidZ=3000
   Frame=2   JointI=2   JointJ=3   IsCurved=No   Length=6000   CentroidX=-15000   CentroidY=-8000   CentroidZ=9000
   Frame=3   JointI=3   JointJ=4   IsCurved=No   Length=6000   CentroidX=-15000   CentroidY=-8000   CentroidZ=15000
   Frame=4   JointI=4   JointJ=5   IsCurved=No   Length=6000   CentroidX=-15000   CentroidY=-8000   CentroidZ=21000
   Frame=5   JointI=5   JointJ=6   IsCurved=No   Length=6000   CentroidX=-15000   CentroidY=-8000   CentroidZ=27000
   Frame=6   JointI=7   JointJ=8   IsCurved=No   Length=6000   CentroidX=-15000   CentroidY=-4000   CentroidZ=3000
   Frame=7   JointI=8   JointJ=9   IsCurved=No   Length=6000   CentroidX=-15000   CentroidY=-4000   CentroidZ=9000
   Frame=8   JointI=9   JointJ=10   IsCurved=No   Length=6000   CentroidX=-15000   CentroidY=-4000   CentroidZ=15000
   Frame=9   JointI=10   JointJ=11   IsCurved=No   Length=6000   CentroidX=-15000   CentroidY=-4000   CentroidZ=21000
   Frame=10   JointI=11   JointJ=12   IsCurved=No   Length=6000   CentroidX=-15000   CentroidY=-4000   CentroidZ=27000
   Frame=11   JointI=13   JointJ=14   IsCurved=No   Length=6000   CentroidX=-15000   CentroidY=0   CentroidZ=3000
   Frame=12   JointI=14   JointJ=15   IsCurved=No   Length=6000   CentroidX=-15000   CentroidY=0   CentroidZ=9000
   Frame=13   JointI=15   JointJ=16   IsCurved=No   Length=6000   CentroidX=-15000   CentroidY=0   CentroidZ=15000
   Frame=14   JointI=16   JointJ=17   IsCurved=No   Length=6000   CentroidX=-15000   CentroidY=0   CentroidZ=21000
   Frame=15   JointI=17   JointJ=18   IsCurved=No   Length=6000   CentroidX=-15000   CentroidY=0   CentroidZ=27000
   Frame=16   JointI=19   JointJ=20   IsCurved=No   Length=6000   CentroidX=-15000   CentroidY=4000   CentroidZ=3000
   Frame=17   JointI=20   JointJ=21   IsCurved=No   Length=6000   CentroidX=-15000   CentroidY=4000   CentroidZ=9000
   Frame=18   JointI=21   JointJ=22   IsCurved=No   Length=6000   CentroidX=-15000   CentroidY=4000   CentroidZ=15000
   Frame=19   JointI=22   JointJ=23   IsCurved=No   Length=6000   CentroidX=-15000   CentroidY=4000   CentroidZ=21000
   Frame=20   JointI=23   JointJ=24   IsCurved=No   Length=6000   CentroidX=-15000   CentroidY=4000   CentroidZ=27000
# ... 442 like lines cut
 
TABLE:  "JOINT RESTRAINT ASSIGNMENTS"
   Joint=1   U1=Yes   U2=Yes   U3=Yes   R1=No   R2=No   R3=No
   Joint=7   U1=Yes   U2=Yes   U3=Yes   R1=No   R2=No   R3=No
   Joint=13   U1=Yes   U2=Yes   U3=Yes   R1=No   R2=No   R3=No
   Joint=19   U1=Yes   U2=Yes   U3=Yes   R1=No   R2=No   R3=No
   Joint=25   U1=Yes   U2=Yes   U3=Yes   R1=No   R2=No   R3=No
   Joint=31   U1=Yes   U2=Yes   U3=Yes   R1=No   R2=No   R3=No
   Joint=37   U1=Yes   U2=Yes   U3=Yes   R1=No   R2=No   R3=No
   Joint=43   U1=Yes   U2=Yes   U3=Yes   R1=No   R2=No   R3=No
   Joint=49   U1=Yes   U2=Yes   U3=Yes   R1=No   R2=No   R3=No
   Joint=55   U1=Yes   U2=Yes   U3=Yes   R1=No   R2=No   R3=No
   Joint=61   U1=Yes   U2=Yes   U3=Yes   R1=No   R2=No   R3=No
   Joint=67   U1=Yes   U2=Yes   U3=Yes   R1=No   R2=No   R3=No
   Joint=73   U1=Yes   U2=Yes   U3=Yes   R1=No   R2=No   R3=No
   Joint=79   U1=Yes   U2=Yes   U3=Yes   R1=No   R2=No   R3=No
   Joint=85   U1=Yes   U2=Yes   U3=Yes   R1=No   R2=No   R3=No
   Joint=91   U1=Yes   U2=Yes   U3=Yes   R1=No   R2=No   R3=No
   Joint=97   U1=Yes   U2=Yes   U3=Yes   R1=No   R2=No   R3=No
   Joint=103   U1=Yes   U2=Yes   U3=Yes   R1=No   R2=No   R3=No
   Joint=109   U1=Yes   U2=Yes   U3=Yes   R1=No   R2=No   R3=No
   Joint=115   U1=Yes   U2=Yes   U3=Yes   R1=No   R2=No   R3=No
# ... 15 like lines cut
 
TABLE:  "FRAME SECTION ASSIGNMENTS"
   Frame=1   SectionType=Box/Tube   AutoSelect=N.A.   AnalSect=FSEC1   DesignSect=FSEC1   MatProp=Default
   Frame=2   SectionType=Box/Tube   AutoSelect=N.A.   AnalSect=FSEC1   DesignSect=FSEC1   MatProp=Default
   Frame=3   SectionType=Box/Tube   AutoSelect=N.A.   AnalSect=FSEC1   DesignSect=FSEC1   MatProp=Default
   Frame=4   SectionType=Box/Tube   AutoSelect=N.A.   AnalSect=FSEC1   DesignSect=FSEC1   MatProp=Default
   Frame=5   SectionType=Box/Tube   AutoSelect=N.A.   AnalSect=FSEC1   DesignSect=FSEC1   MatProp=Default
   Frame=6   SectionType=Box/Tube   AutoSelect=N.A.   AnalSect=FSEC1   DesignSect=FSEC1   MatProp=Default
   Frame=7   SectionType=Box/Tube   AutoSelect=N.A.   AnalSect=FSEC1   DesignSect=FSEC1   MatProp=Default
   Frame=8   SectionType=Box/Tube   AutoSelect=N.A.   AnalSect=FSEC1   DesignSect=FSEC1   MatProp=Default
   Frame=9   SectionType=Box/Tube   AutoSelect=N.A.   AnalSect=FSEC1   DesignSect=FSEC1   MatProp=Default
   Frame=10   SectionType=Box/Tube   AutoSelect=N.A.   AnalSect=FSEC1   DesignSect=FSEC1   MatProp=Default
   Frame=11   SectionType=Box/Tube   AutoSelect=N.A.   AnalSect=FSEC1   DesignSect=FSEC1   MatProp=Default
   Frame=12   SectionType=Box/Tube   AutoSelect=N.A.   AnalSect=FSEC1   DesignSect=FSEC1   MatProp=Default
   Frame=13   SectionType=Box/Tube   AutoSelect=N.A.   AnalSect=FSEC1   DesignSect=FSEC1   MatProp=Default
   Frame=14   SectionType=Box/Tube   AutoSelect=N.A.   AnalSect=FSEC1   DesignSect=FSEC1   MatProp=Default
   Frame=15   SectionType=Box/Tube   AutoSelect=N.A.   AnalSect=FSEC1   DesignSect=FSEC1   MatProp=Default
   Frame=16   SectionType=Box/Tube   AutoSelect=N.A.   AnalSect=FSEC1   DesignSect=FSEC1   MatProp=Default
   Frame=17   SectionType=Box/Tube   AutoSelect=N.A.   AnalSect=FSEC1   DesignSect=FSEC1   MatProp=Default
   Frame=18   SectionType=Box/Tube   AutoSelect=N.A.   AnalSect=FSEC1   DesignSect=FSEC1   MatProp=Default
   Frame=19   SectionType=Box/Tube   AutoSelect=N.A.   AnalSect=FSEC1   DesignSect=FSEC1   MatProp=Default
   Frame=20   SectionType=Box/Tube   AutoSelect=N.A.   AnalSect=FSEC1   DesignSect=FSEC1   MatProp=Default
# ... 442 like lines cut
 
TABLE:  "FRAME OUTPUT STATION ASSIGNMENTS"
   Frame=1   StationType=MinNumSta   MinNumSta=3   AddAtElmInt=Yes   AddAtPtLoad=Yes
   Frame=2   StationType=MinNumSta   MinNumSta=3   AddAtElmInt=Yes   AddAtPtLoad=Yes
   Frame=3   StationType=MinNumSta   MinNumSta=3   AddAtElmInt=Yes   AddAtPtLoad=Yes
   Frame=4   StationType=MinNumSta   MinNumSta=3   AddAtElmInt=Yes   AddAtPtLoad=Yes
   Frame=5   StationType=MinNumSta   MinNumSta=3   AddAtElmInt=Yes   AddAtPtLoad=Yes
   Frame=6   StationType=MinNumSta   MinNumSta=3   AddAtElmInt=Yes   AddAtPtLoad=Yes
   Frame=7   StationType=MinNumSta   MinNumSta=3   AddAtElmInt=Yes   AddAtPtLoad=Yes
   Frame=8   StationType=MinNumSta   MinNumSta=3   AddAtElmInt=Yes   AddAtPtLoad=Yes
   Frame=9   StationType=MinNumSta   MinNumSta=3   AddAtElmInt=Yes   AddAtPtLoad=Yes
   Frame=10   StationType=MinNumSta   MinNumSta=3   AddAtElmInt=Yes   AddAtPtLoad=Yes
   Frame=11   StationType=MinNumSta   MinNumSta=3   AddAtElmInt=Yes   AddAtPtLoad=Yes
   Frame=12   StationType=MinNumSta   MinNumSta=3   AddAtElmInt=Yes   AddAtPtLoad=Yes
   Frame=13   StationType=MinNumSta   MinNumSta=3   AddAtElmInt=Yes   AddAtPtLoad=Yes
   Frame=14   StationType=MinNumSta   MinNumSta=3   AddAtElmInt=Yes   AddAtPtLoad=Yes
   Frame=15   StationType=MinNumSta   MinNumSta=3   AddAtElmInt=Yes   AddAtPtLoad=Yes
   Frame=16   StationType=MinNumSta   MinNumSta=3   AddAtElmInt=Yes   AddAtPtLoad=Yes
   Frame=17   StationType=MinNumSta   MinNumSta=3   AddAtElmInt=Yes   AddAtPtLoad=Yes
   Frame=18   StationType=MinNumSta   MinNumSta=3   AddAtElmInt=Yes   AddAtPtLoad=Yes
   Frame=19   StationType=MinNumSta   MinNumSta=3   AddAtElmInt=Yes   AddAtPtLoad=Yes
   Frame=20   StationType=MinNumSta   MinNumSta=3   AddAtElmInt=Yes   AddAtPtLoad=Yes
# ... 154 like lines cut
   Frame=176   StationType=MaxStaSpcg   MaxStaSpcg=.5   AddAtElmInt=Yes   AddAtPtLoad=Yes
   Frame=177   StationType=MaxStaSpcg   MaxStaSpcg=.5   AddAtElmInt=Yes   AddAtPtLoad=Yes
   Frame=178   StationType=MaxStaSpcg   MaxStaSpcg=.5   AddAtElmInt=Yes   AddAtPtLoad=Yes
   Frame=179   StationType=MaxStaSpcg   MaxStaSpcg=.5   AddAtElmInt=Yes   AddAtPtLoad=Yes
   Frame=180   StationType=MaxStaSpcg   MaxStaSpcg=.5   AddAtElmInt=Yes   AddAtPtLoad=Yes
   Frame=181   StationType=MaxStaSpcg   MaxStaSpcg=.5   AddAtElmInt=Yes   AddAtPtLoad=Yes
   Frame=182   StationType=MaxStaSpcg   MaxStaSpcg=.5   AddAtElmInt=Yes   AddAtPtLoad=Yes
   Frame=183   StationType=MaxStaSpcg   MaxStaSpcg=.5   AddAtElmInt=Yes   AddAtPtLoad=Yes
   Frame=184   StationType=MaxStaSpcg   MaxStaSpcg=.5   AddAtElmInt=Yes   AddAtPtLoad=Yes
   Frame=185   StationType=MaxStaSpcg   MaxStaSpcg=.5   AddAtElmInt=Yes   AddAtPtLoad=Yes
   Frame=186   StationType=MaxStaSpcg   MaxStaSpcg=.5   AddAtElmInt=Yes   AddAtPtLoad=Yes
   Frame=187   StationType=MaxStaSpcg   MaxStaSpcg=.5   AddAtElmInt=Yes   AddAtPtLoad=Yes
   Frame=188   StationType=MaxStaSpcg   MaxStaSpcg=.5   AddAtElmInt=Yes   AddAtPtLoad=Yes
   Frame=189   StationType=MaxStaSpcg   MaxStaSpcg=.5   AddAtElmInt=Yes   AddAtPtLoad=Yes
   Frame=190   StationType=MaxStaSpcg   MaxStaSpcg=.5   AddAtElmInt=Yes   AddAtPtLoad=Yes
   Frame=191   StationType=MaxStaSpcg   MaxStaSpcg=.5   AddAtElmInt=Yes   AddAtPtLoad=Yes
   Frame=192   StationType=MaxStaSpcg   MaxStaSpcg=.5   AddAtElmInt=Yes   AddAtPtLoad=Yes
   Frame=193   StationType=MaxStaSpcg   MaxStaSpcg=.5   AddAtElmInt=Yes   AddAtPtLoad=Yes
   Frame=194   StationType=MaxStaSpcg   MaxStaSpcg=.5   AddAtElmInt=Yes   AddAtPtLoad=Yes
   Frame=195   StationType=MaxStaSpcg   MaxStaSpcg=.5   AddAtElmInt=Yes   AddAtPtLoad=Yes
# ... 268 like lines cut
 
TABLE:  "FRAME AUTO MESH ASSIGNMENTS"
   Frame=1   AutoMesh=Yes   AtJoints=Yes   AtFrames=No   NumSegments=0   MaxLength=0   MaxDegrees=0
   Frame=2   AutoMesh=Yes   AtJoints=Yes   AtFrames=No   NumSegments=0   MaxLength=0   MaxDegrees=0
   Frame=3   AutoMesh=Yes   AtJoints=Yes   AtFrames=No   NumSegments=0   MaxLength=0   MaxDegrees=0
   Frame=4   AutoMesh=Yes   AtJoints=Yes   AtFrames=No   NumSegments=0   MaxLength=0   MaxDegrees=0
   Frame=5   AutoMesh=Yes   AtJoints=Yes   AtFrames=No   NumSegments=0   MaxLength=0   MaxDegrees=0
   Frame=6   AutoMesh=Yes   AtJoints=Yes   AtFrames=No   NumSegments=0   MaxLength=0   MaxDegrees=0
   Frame=7   AutoMesh=Yes   AtJoints=Yes   AtFrames=No   NumSegments=0   MaxLength=0   MaxDegrees=0
   Frame=8   AutoMesh=Yes   AtJoints=Yes   AtFrames=No   NumSegments=0   MaxLength=0   MaxDegrees=0
   Frame=9   AutoMesh=Yes   AtJoints=Yes   AtFrames=No   NumSegments=0   MaxLength=0   MaxDegrees=0
   Frame=10   AutoMesh=Yes   AtJoints=Yes   AtFrames=No   NumSegments=0   MaxLength=0   MaxDegrees=0
   Frame=11   AutoMesh=Yes   AtJoints=Yes   AtFrames=No   NumSegments=0   MaxLength=0   MaxDegrees=0
   Frame=12   AutoMesh=Yes   AtJoints=Yes   AtFrames=No   NumSegments=0   MaxLength=0   MaxDegrees=0
   Frame=13   AutoMesh=Yes   AtJoints=Yes   AtFrames=No   NumSegments=0   MaxLength=0   MaxDegrees=0
   Frame=14   AutoMesh=Yes   AtJoints=Yes   AtFrames=No   NumSegments=0   MaxLength=0   MaxDegrees=0
   Frame=15   AutoMesh=Yes   AtJoints=Yes   AtFrames=No   NumSegments=0   MaxLength=0   MaxDegrees=0
   Frame=16   AutoMesh=Yes   AtJoints=Yes   AtFrames=No   NumSegments=0   MaxLength=0   MaxDegrees=0
   Frame=17   AutoMesh=Yes   AtJoints=Yes   AtFrames=No   NumSegments=0   MaxLength=0   MaxDegrees=0
   Frame=18   AutoMesh=Yes   AtJoints=Yes   AtFrames=No   NumSegments=0   MaxLength=0   MaxDegrees=0
   Frame=19   AutoMesh=Yes   AtJoints=Yes   AtFrames=No   NumSegments=0   MaxLength=0   MaxDegrees=0
   Frame=20   AutoMesh=Yes   AtJoints=Yes   AtFrames=No   NumSegments=0   MaxLength=0   MaxDegrees=0
# ... 442 like lines cut
 
TABLE:  "FRAME DESIGN PROCEDURES"
   Frame=1   DesignProc="From Material"
   Frame=2   DesignProc="From Material"
   Frame=3   DesignProc="From Material"
   Frame=4   DesignProc="From Material"
   Frame=5   DesignProc="From Material"
   Frame=6   DesignProc="From Material"
   Frame=7   DesignProc="From Material"
   Frame=8   DesignProc="From Material"
   Frame=9   DesignProc="From Material"
   Frame=10   DesignProc="From Material"
   Frame=11   DesignProc="From Material"
   Frame=12   DesignProc="From Material"
   Frame=13   DesignProc="From Material"
   Frame=14   DesignProc="From Material"
   Frame=15   DesignProc="From Material"
   Frame=16   DesignProc="From Material"
   Frame=17   DesignProc="From Material"
   Frame=18   DesignProc="From Material"
   Frame=19   DesignProc="From Material"
   Frame=20   DesignProc="From Material"
# ... 442 like lines cut
 
TABLE:  "OVERWRITES - STEEL DESIGN - AISC360-05-IBC2006"
   Frame=1   DesignSect="Program Determined"   FrameType="Program Determined"   Fy=0   RLLF=0   AreaRatio=0   XLMajor=0   XLMinor=0   XLLTB=0   K1Major=0   K1Minor=0   K2Major=0   K2Minor=0   KLTB=0   CmMajor=0   CmMinor=0   Cb=0 _
        B1Major=0   B1Minor=0   B2Major=0   B2Minor=0   HSSReduceT="Program Determined"   HSSWelding="Program Determined"   Omega0=0   Ry=0   Pnc=0   Pnt=0   Mn3=0   Mn2=0   Vn2=0   Vn3=0   CheckDefl="Program Determined" _
        DeflType="Program Determined"   DLRat=0   SDLAndLLRat=0   LLRat=0   TotalRat=0   NetRat=0   DLAbs=0   SDLAndLLAbs=0   LLAbs=0   TotalAbs=0   NetAbs=0   SpecCamber=0   DCLimit=0
   Frame=2   DesignSect="Program Determined"   FrameType="Program Determined"   Fy=0   RLLF=0   AreaRatio=0   XLMajor=0   XLMinor=0   XLLTB=0   K1Major=0   K1Minor=0   K2Major=0   K2Minor=0   KLTB=0   CmMajor=0   CmMinor=0   Cb=0 _
        B1Major=0   B1Minor=0   B2Major=0   B2Minor=0   HSSReduceT="Program Determined"   HSSWelding="Program Determined"   Omega0=0   Ry=0   Pnc=0   Pnt=0   Mn3=0   Mn2=0   Vn2=0   Vn3=0   CheckDefl="Program Determined" _
        DeflType="Program Determined"   DLRat=0   SDLAndLLRat=0   LLRat=0   TotalRat=0   NetRat=0   DLAbs=0   SDLAndLLAbs=0   LLAbs=0   TotalAbs=0   NetAbs=0   SpecCamber=0   DCLimit=0
   Frame=3   DesignSect="Program Determined"   FrameType="Program Determined"   Fy=0   RLLF=0   AreaRatio=0   XLMajor=0   XLMinor=0   XLLTB=0   K1Major=0   K1Minor=0   K2Major=0   K2Minor=0   KLTB=0   CmMajor=0   CmMinor=0   Cb=0 _
        B1Major=0   B1Minor=0   B2Major=0   B2Minor=0   HSSReduceT="Program Determined"   HSSWelding="Program Determined"   Omega0=0   Ry=0   Pnc=0   Pnt=0   Mn3=0   Mn2=0   Vn2=0   Vn3=0   CheckDefl="Program Determined" _
        DeflType="Program Determined"   DLRat=0   SDLAndLLRat=0   LLRat=0   TotalRat=0   NetRat=0   DLAbs=0   SDLAndLLAbs=0   LLAbs=0   TotalAbs=0   NetAbs=0   SpecCamber=0   DCLimit=0
   Frame=4   DesignSect="Program Determined"   FrameType="Program Determined"   Fy=0   RLLF=0   AreaRatio=0   XLMajor=0   XLMinor=0   XLLTB=0   K1Major=0   K1Minor=0   K2Major=0   K2Minor=0   KLTB=0   CmMajor=0   CmMinor=0   Cb=0 _
        B1Major=0   B1Minor=0   B2Major=0   B2Minor=0   HSSReduceT="Program Determined"   HSSWelding="Program Determined"   Omega0=0   Ry=0   Pnc=0   Pnt=0   Mn3=0   Mn2=0   Vn2=0   Vn3=0   CheckDefl="Program Determined" _
        DeflType="Program Determined"   DLRat=0   SDLAndLLRat=0   LLRat=0   TotalRat=0   NetRat=0   DLAbs=0   SDLAndLLAbs=0   LLAbs=0   TotalAbs=0   NetAbs=0   SpecCamber=0   DCLimit=0
   Frame=5   DesignSect="Program Determined"   FrameType="Program Determined"   Fy=0   RLLF=0   AreaRatio=0   XLMajor=0   XLMinor=0   XLLTB=0   K1Major=0   K1Minor=0   K2Major=0   K2Minor=0   KLTB=0   CmMajor=0   CmMinor=0   Cb=0 _
        B1Major=0   B1Minor=0   B2Major=0   B2Minor=0   HSSReduceT="Program Determined"   HSSWelding="Program Determined"   Omega0=0   Ry=0   Pnc=0   Pnt=0   Mn3=0   Mn2=0   Vn2=0   Vn3=0   CheckDefl="Program Determined" _
        DeflType="Program Determined"   DLRat=0   SDLAndLLRat=0   LLRat=0   TotalRat=0   NetRat=0   DLAbs=0   SDLAndLLAbs=0   LLAbs=0   TotalAbs=0   NetAbs=0   SpecCamber=0   DCLimit=0
   Frame=6   DesignSect="Program Determined"   FrameType="Program Determined"   Fy=0   RLLF=0   AreaRatio=0   XLMajor=0   XLMinor=0   XLLTB=0   K1Major=0   K1Minor=0   K2Major=0   K2Minor=0   KLTB=0   CmMajor=0   CmMinor=0   Cb=0 _
        B1Major=0   B1Minor=0   B2Major=0   B2Minor=0   HSSReduceT="Program Determined"   HSSWelding="Program Determined"   Omega0=0   Ry=0   Pnc=0   Pnt=0   Mn3=0   Mn2=0   Vn2=0   Vn3=0   CheckDefl="Program Determined" _
        DeflType="Program Determined"   DLRat=0   SDLAndLLRat=0   LLRat=0   TotalRat=0   NetRat=0   DLAbs=0   SDLAndLLAbs=0   LLAbs=0   TotalAbs=0   NetAbs=0   SpecCamber=0   DCLimit=0
   Frame=7   DesignSect="Program Determined"   FrameType="Program Determined"   Fy=0   RLLF=0   AreaRatio=0   XLMajor=0   XLMinor=0   XLLTB=0   K1Major=0   K1Minor=0   K2Major=0   K2Minor=0   KLTB=0   CmMajor=0   CmMinor=0   Cb=0 _
        B1Major=0   B1Minor=0   B2Major=0   B2Minor=0   HSSReduceT="Program Determined"   HSSWelding="Program Determined"   Omega0=0   Ry=0   Pnc=0   Pnt=0   Mn3=0   Mn2=0   Vn2=0   Vn3=0   CheckDefl="Program Determined" _
        DeflType="Program Determined"   DLRat=0   SDLAndLLRat=0   LLRat=0   TotalRat=0   NetRat=0   DLAbs=0   SDLAndLLAbs=0   LLAbs=0   TotalAbs=0   NetAbs=0   SpecCamber=0   DCLimit=0
   Frame=8   DesignSect="Program Determined"   FrameType="Program Determined"   Fy=0   RLLF=0   AreaRatio=0   XLMajor=0   XLMinor=0   XLLTB=0   K1Major=0   K1Minor=0   K2Major=0   K2Minor=0   KLTB=0   CmMajor=0   CmMinor=0   Cb=0 _
        B1Major=0   B1Minor=0   B2Major=0   B2Minor=0   HSSReduceT="Program Determined"   HSSWelding="Program Determined"   Omega0=0   Ry=0   Pnc=0   Pnt=0   Mn3=0   Mn2=0   Vn2=0   Vn3=0   CheckDefl="Program Determined" _
        DeflType="Program Determined"   DLRat=0   SDLAndLLRat=0   LLRat=0   TotalRat=0   NetRat=0   DLAbs=0   SDLAndLLAbs=0   LLAbs=0   TotalAbs=0   NetAbs=0   SpecCamber=0   DCLimit=0
   Frame=9   DesignSect="Program Determined"   FrameType="Program Determined"   Fy=0   RLLF=0   AreaRatio=0   XLMajor=0   XLMinor=0   XLLTB=0   K1Major=0   K1Minor=0   K2Major=0   K2Minor=0   KLTB=0   CmMajor=0   CmMinor=0   Cb=0 _
        B1Major=0   B1Minor=0   B2Major=0   B2Minor=0   HSSReduceT="Program Determined"   HSSWelding="Program Determined"   Omega0=0   Ry=0   Pnc=0   Pnt=0   Mn3=0   Mn2=0   Vn2=0   Vn3=0   CheckDefl="Program Determined" _
        DeflType="Program Determined"   DLRat=0   SDLAndLLRat=0   LLRat=0   TotalRat=0   NetRat=0   DLAbs=0   SDLAndLLAbs=0   LLAbs=0   TotalAbs=0   NetAbs=0   SpecCamber=0   DCLimit=0
   Frame=10   DesignSect="Program Determined"   FrameType="Program Determined"   Fy=0   RLLF=0   AreaRatio=0   XLMajor=0   XLMinor=0   XLLTB=0   K1Major=0   K1Minor=0   K2Major=0   K2Minor=0   KLTB=0   CmMajor=0   CmMinor=0   Cb=0 _
        B1Major=0   B1Minor=0   B2Major=0   B2Minor=0   HSSReduceT="Program Determined"   HSSWelding="Program Determined"   Omega0=0   Ry=0   Pnc=0   Pnt=0   Mn3=0   Mn2=0   Vn2=0   Vn3=0   CheckDefl="Program Determined" _
        DeflType="Program Determined"   DLRat=0   SDLAndLLRat=0   LLRat=0   TotalRat=0   NetRat=0   DLAbs=0   SDLAndLLAbs=0   LLAbs=0   TotalAbs=0   NetAbs=0   SpecCamber=0   DCLimit=0
   Frame=11   DesignSect="Program Determined"   FrameType="Program Determined"   Fy=0   RLLF=0   AreaRatio=0   XLMajor=0   XLMinor=0   XLLTB=0   K1Major=0   K1Minor=0   K2Major=0   K2Minor=0   KLTB=0   CmMajor=0   CmMinor=0   Cb=0 _
        B1Major=0   B1Minor=0   B2Major=0   B2Minor=0   HSSReduceT="Program Determined"   HSSWelding="Program Determined"   Omega0=0   Ry=0   Pnc=0   Pnt=0   Mn3=0   Mn2=0   Vn2=0   Vn3=0   CheckDefl="Program Determined" _
        DeflType="Program Determined"   DLRat=0   SDLAndLLRat=0   LLRat=0   TotalRat=0   NetRat=0   DLAbs=0   SDLAndLLAbs=0   LLAbs=0   TotalAbs=0   NetAbs=0   SpecCamber=0   DCLimit=0
   Frame=12   DesignSect="Program Determined"   FrameType="Program Determined"   Fy=0   RLLF=0   AreaRatio=0   XLMajor=0   XLMinor=0   XLLTB=0   K1Major=0   K1Minor=0   K2Major=0   K2Minor=0   KLTB=0   CmMajor=0   CmMinor=0   Cb=0 _
        B1Major=0   B1Minor=0   B2Major=0   B2Minor=0   HSSReduceT="Program Determined"   HSSWelding="Program Determined"   Omega0=0   Ry=0   Pnc=0   Pnt=0   Mn3=0   Mn2=0   Vn2=0   Vn3=0   CheckDefl="Program Determined" _
        DeflType="Program Determined"   DLRat=0   SDLAndLLRat=0   LLRat=0   TotalRat=0   NetRat=0   DLAbs=0   SDLAndLLAbs=0   LLAbs=0   TotalAbs=0   NetAbs=0   SpecCamber=0   DCLimit=0
   Frame=13   DesignSect="Program Determined"   FrameType="Program Determined"   Fy=0   RLLF=0   AreaRatio=0   XLMajor=0   XLMinor=0   XLLTB=0   K1Major=0   K1Minor=0   K2Major=0   K2Minor=0   KLTB=0   CmMajor=0   CmMinor=0   Cb=0 _
        B1Major=0   B1Minor=0   B2Major=0   B2Minor=0   HSSReduceT="Program Determined"   HSSWelding="Program Determined"   Omega0=0   Ry=0   Pnc=0   Pnt=0   Mn3=0   Mn2=0   Vn2=0   Vn3=0   CheckDefl="Program Determined" _
        DeflType="Program Determined"   DLRat=0   SDLAndLLRat=0   LLRat=0   TotalRat=0   NetRat=0   DLAbs=0   SDLAndLLAbs=0   LLAbs=0   TotalAbs=0   NetAbs=0   SpecCamber=0   DCLimit=0
   Frame=14   DesignSect="Program Determined"   FrameType="Program Determined"   Fy=0   RLLF=0   AreaRatio=0   XLMajor=0   XLMinor=0   XLLTB=0   K1Major=0   K1Minor=0   K2Major=0   K2Minor=0   KLTB=0   CmMajor=0   CmMinor=0   Cb=0 _
        B1Major=0   B1Minor=0   B2Major=0   B2Minor=0   HSSReduceT="Program Determined"   HSSWelding="Program Determined"   Omega0=0   Ry=0   Pnc=0   Pnt=0   Mn3=0   Mn2=0   Vn2=0   Vn3=0   CheckDefl="Program Determined" _
        DeflType="Program Determined"   DLRat=0   SDLAndLLRat=0   LLRat=0   TotalRat=0   NetRat=0   DLAbs=0   SDLAndLLAbs=0   LLAbs=0   TotalAbs=0   NetAbs=0   SpecCamber=0   DCLimit=0
   Frame=15   DesignSect="Program Determined"   FrameType="Program Determined"   Fy=0   RLLF=0   AreaRatio=0   XLMajor=0   XLMinor=0   XLLTB=0   K1Major=0   K1Minor=0   K2Major=0   K2Minor=0   KLTB=0   CmMajor=0   CmMinor=0   Cb=0 _
        B1Major=0   B1Minor=0   B2Major=0   B2Minor=0   HSSReduceT="Program Determined"   HSSWelding="Program Determined"   Omega0=0   Ry=0   Pnc=0   Pnt=0   Mn3=0   Mn2=0   Vn2=0   Vn3=0   CheckDefl="Program Determined" _
        DeflType="Program Determined"   DLRat=0   SDLAndLLRat=0   LLRat=0   TotalRat=0   NetRat=0   DLAbs=0   SDLAndLLAbs=0   LLAbs=0   TotalAbs=0   NetAbs=0   SpecCamber=0   DCLimit=0
   Frame=16   DesignSect="Program Determined"   FrameType="Program Determined"   Fy=0   RLLF=0   AreaRatio=0   XLMajor=0   XLMinor=0   XLLTB=0   K1Major=0   K1Minor=0   K2Major=0   K2Minor=0   KLTB=0   CmMajor=0   CmMinor=0   Cb=0 _
        B1Major=0   B1Minor=0   B2Major=0   B2Minor=0   HSSReduceT="Program Determined"   HSSWelding="Program Determined"   Omega0=0   Ry=0   Pnc=0   Pnt=0   Mn3=0   Mn2=0   Vn2=0   Vn3=0   CheckDefl="Program Determined" _
        DeflType="Program Determined"   DLRat=0   SDLAndLLRat=0   LLRat=0   TotalRat=0   NetRat=0   DLAbs=0   SDLAndLLAbs=0   LLAbs=0   TotalAbs=0   NetAbs=0   SpecCamber=0   DCLimit=0
   Frame=17   DesignSect="Program Determined"   FrameType="Program Determined"   Fy=0   RLLF=0   AreaRatio=0   XLMajor=0   XLMinor=0   XLLTB=0   K1Major=0   K1Minor=0   K2Major=0   K2Minor=0   KLTB=0   CmMajor=0   CmMinor=0   Cb=0 _
        B1Major=0   B1Minor=0   B2Major=0   B2Minor=0   HSSReduceT="Program Determined"   HSSWelding="Program Determined"   Omega0=0   Ry=0   Pnc=0   Pnt=0   Mn3=0   Mn2=0   Vn2=0   Vn3=0   CheckDefl="Program Determined" _
        DeflType="Program Determined"   DLRat=0   SDLAndLLRat=0   LLRat=0   TotalRat=0   NetRat=0   DLAbs=0   SDLAndLLAbs=0   LLAbs=0   TotalAbs=0   NetAbs=0   SpecCamber=0   DCLimit=0
   Frame=18   DesignSect="Program Determined"   FrameType="Program Determined"   Fy=0   RLLF=0   AreaRatio=0   XLMajor=0   XLMinor=0   XLLTB=0   K1Major=0   K1Minor=0   K2Major=0   K2Minor=0   KLTB=0   CmMajor=0   CmMinor=0   Cb=0 _
        B1Major=0   B1Minor=0   B2Major=0   B2Minor=0   HSSReduceT="Program Determined"   HSSWelding="Program Determined"   Omega0=0   Ry=0   Pnc=0   Pnt=0   Mn3=0   Mn2=0   Vn2=0   Vn3=0   CheckDefl="Program Determined" _
        DeflType="Program Determined"   DLRat=0   SDLAndLLRat=0   LLRat=0   TotalRat=0   NetRat=0   DLAbs=0   SDLAndLLAbs=0   LLAbs=0   TotalAbs=0   NetAbs=0   SpecCamber=0   DCLimit=0
   Frame=19   DesignSect="Program Determined"   FrameType="Program Determined"   Fy=0   RLLF=0   AreaRatio=0   XLMajor=0   XLMinor=0   XLLTB=0   K1Major=0   K1Minor=0   K2Major=0   K2Minor=0   KLTB=0   CmMajor=0   CmMinor=0   Cb=0 _
        B1Major=0   B1Minor=0   B2Major=0   B2Minor=0   HSSReduceT="Program Determined"   HSSWelding="Program Determined"   Omega0=0   Ry=0   Pnc=0   Pnt=0   Mn3=0   Mn2=0   Vn2=0   Vn3=0   CheckDefl="Program Determined" _
        DeflType="Program Determined"   DLRat=0   SDLAndLLRat=0   LLRat=0   TotalRat=0   NetRat=0   DLAbs=0   SDLAndLLAbs=0   LLAbs=0   TotalAbs=0   NetAbs=0   SpecCamber=0   DCLimit=0
   Frame=20   DesignSect="Program Determined"   FrameType="Program Determined"   Fy=0   RLLF=0   AreaRatio=0   XLMajor=0   XLMinor=0   XLLTB=0   K1Major=0   K1Minor=0   K2Major=0   K2Minor=0   KLTB=0   CmMajor=0   CmMinor=0   Cb=0 _
        B1Major=0   B1Minor=0   B2Major=0   B2Minor=0   HSSReduceT="Program Determined"   HSSWelding="Program Determined"   Omega0=0   Ry=0   Pnc=0   Pnt=0   Mn3=0   Mn2=0   Vn2=0   Vn3=0   CheckDefl="Program Determined" _
        DeflType="Program Determined"   DLRat=0   SDLAndLLRat=0   LLRat=0   TotalRat=0   NetRat=0   DLAbs=0   SDLAndLLAbs=0   LLAbs=0   TotalAbs=0   NetAbs=0   SpecCamber=0   DCLimit=0
# ... 1326 like lines cut
 
TABLE:  "PREFERENCES - DIMENSIONAL"
   MergeTol=.001   FineGrid=.25   Nudge=.25   SelectTol=3   SnapTol=12   SLineThick=1   PLineThick=4   MaxFont=8   MinFont=3   AutoZoom=10   ShrinkFact=70   TextFileLen=240
 
TABLE:  "PREFERENCES - STEEL DESIGN - AISC360-05-IBC2006"
   THDesign=Envelopes   FrameType=SMF   PatLLF=.75   SRatioLimit=.95   MaxIter=1   SDC=D   SeisCode=Yes   SeisLoad=Yes   ImpFactor=1   SystemRho=1   SystemSds=.5   SystemR=8   SystemCd=5.5   Omega0=3   Provision=LRFD _
        AMethod="Direct Analysis"   SOMethod="General 2nd Order"   SRMethod="Tau-b Fixed"   NLCoeff=.002   PhiB=.9   PhiC=.9   PhiTY=.9   PhiTF=.75   PhiV=.9   PhiVRolledI=1   PhiVT=.9   PlugWeld=Yes   HSSWelding=ERW   HSSReduceT=No _
        CheckDefl=No   DLRat=120   SDLAndLLRat=120   LLRat=360   TotalRat=240   NetRat=240
 
TABLE:  "PREFERENCES - CONCRETE DESIGN - ACI 318-05/IBC2003"
   THDesign=Envelopes   NumCurves=24   NumPoints=11   MinEccen=Yes   PatLLF=.75   UFLimit=.95   SeisCat=D   PhiT=.9   PhiCTied=.65   PhiCSpiral=.7   PhiV=.75   PhiVSeismic=.6   PhiVJoint=.85
 
TABLE:  "PREFERENCES - ALUMINUM DESIGN - AA-ASD 2000"
   THDesign=Envelopes   FrameType="Moment Frame"   SRatioLimit=1   MaxIter=1   LatFact=1.33333333333333   UseLatFact=No   Bridge=No
 
TABLE:  "PREFERENCES - COLD FORMED DESIGN - AISI-ASD96"
   THDesign=Envelopes   FrameType="Braced Frame"   SRatioLimit=1   MaxIter=1   OmegaBS=1.67   OmegaBUS=1.67   OmegaBLTB=1.67   OmegaVS=1.67   OmegaVNS=1.5   OmegaT=1.67   OmegaC=1.8
 
TABLE:  "OPTIONS - COLORS - DISPLAY"
   DeviceType=Screen   Points=Yellow   LinesFrame=Yellow   LinesFrmDL=Blue   LinesCable=Green   LinesTendon=Green   SpringLinks=Green   Restraints=Green   Releases=Green   Axes=Cyan   Text=Green   ShadowLines=Gray8Dark _
        GuideLines=Gray8Dark   Highlight=Red   Selection=White   AreaFillBot=Red   AreaFillTop=16744703   AreaFillSd=Red   AreaEdge=DarkRed   SolidF1=Red   SolidF2=Blue   SolidF3=Green   SolidF4=Yellow   SolidF5=White   SolidF6=Cyan _
        SolidEdge=DarkRed   Floor=Gray4   Background=Black   BGLowLeft=Black   BGLowRight=Black   BGUpRight=Black   Darkness=0
   DeviceType=Printer   Points=Gray8Dark   LinesFrame=Black   LinesFrmDL=Gray4   LinesCable=Black   LinesTendon=Black   SpringLinks=Gray8Dark   Restraints=Gray8Dark   Releases=Gray4   Axes=Black   Text=Black   ShadowLines=Gray4 _
        GuideLines=Gray4   Highlight=Black   Selection=Black   AreaFillBot=Gray4   AreaFillTop=Gray8Dark   AreaFillSd=Gray4   AreaEdge=Black   SolidF1=Gray1Light   SolidF2=Gray2   SolidF3=Gray3   SolidF4=Gray4   SolidF5=Gray5 _
        SolidF6=Gray6   SolidEdge=Black   Floor=Gray4   Background=White   BGLowLeft=White   BGLowRight=White   BGUpRight=White   Darkness=.5
   DeviceType="Color Printer"   Points=Blue   LinesFrame=Blue   LinesFrmDL=Blue   LinesCable=Green   LinesTendon=Green   SpringLinks=Green   Restraints=Green   Releases=Green   Axes=Cyan   Text=Black   ShadowLines=Gray8Dark _
        GuideLines=Gray8Dark   Highlight=Red   Selection=10504778   AreaFillBot=Red   AreaFillTop=16744703   AreaFillSd=Red   AreaEdge=DarkRed   SolidF1=Red   SolidF2=Blue   SolidF3=Green   SolidF4=Yellow   SolidF5=White   SolidF6=Cyan _
        SolidEdge=DarkRed   Floor=Gray4   Background=White   BGLowLeft=White   BGLowRight=White   BGUpRight=White   Darkness=.5
 
TABLE:  "OPTIONS - COLORS - OUTPUT"
   DeviceType=Screen   Contour1=13107400   Contour2=6553828   Contour3=Red   Contour4=16639   Contour5=Orange   Contour6=43775   Contour7=54527   Contour8=Yellow   Contour9=65408   Contour10=Green   Contour11=8453888   Contour12=Cyan _
        Contour13=16755200   Contour14=16733440   Contour15=Blue   Transpare=.5   Ratio1=Cyan   Ratio2=Green   Ratio3=Yellow   Ratio4=Orange   Ratio5=Red   RatioNotD=Gray4   RatioNotC=Red   RatioVal1=.5   RatioVal2=.7   RatioVal3=.9 _
        RatioVal4=1   DFillPos=Blue   DFillNeg=Red   DFillRPos=Green   DFillRNeg=Green
   DeviceType=Printer   Contour1=Black   Contour2=3158064   Contour3=4210752   Contour4=5263440   Contour5=6316128   Contour6=7368816   Contour7=Gray8Dark   Contour8=Gray7   Contour9=Gray6   Contour10=Gray5   Contour11=Gray4 _
        Contour12=Gray3   Contour13=Gray2   Contour14=Gray1Light   Contour15=White   Transpare=0   Ratio1=Gray2   Ratio2=Gray4   Ratio3=Gray8Dark   Ratio4=4210752   Ratio5=Black   RatioNotD=Gray4   RatioNotC=Black   RatioVal1=.5 _
        RatioVal2=.7   RatioVal3=.9   RatioVal4=1   DFillPos=Gray8Dark   DFillNeg=Gray8Dark   DFillRPos=4210752   DFillRNeg=4210752
   DeviceType="Color Printer"   Contour1=13107400   Contour2=6553828   Contour3=Red   Contour4=16639   Contour5=Orange   Contour6=43775   Contour7=54527   Contour8=Yellow   Contour9=65408   Contour10=Green   Contour11=8453888 _
        Contour12=Cyan   Contour13=16755200   Contour14=16733440   Contour15=Blue   Transpare=0   Ratio1=Cyan   Ratio2=Green   Ratio3=Yellow   Ratio4=Orange   Ratio5=Red   RatioNotD=Gray4   RatioNotC=Red   RatioVal1=.5   RatioVal2=.7 _
        RatioVal3=.9   RatioVal4=1   DFillPos=Blue   DFillNeg=Red   DFillRPos=Green   DFillRNeg=Green
 
TABLE:  "DATABASE FORMAT TYPES"
   UnitsCurr=Yes   OverrideE=No
 
TABLE:  "PROJECT INFORMATION"
   Item="Company Name"   Data=rei
   Item="Client Name"
   Item="Project Name"
   Item="Project Number"
   Item="Model Name"
   Item="Model Description"
   Item="Revision Number"
   Item="Frame Type"
   Item=Engineer
   Item=Checker
   Item=Supervisor
   Item="Issue Code"
   Item="Design Code"
 
END TABLE DATA
